[root]
type=Root
children=system
eventq_index=0
full_system=true
sim_quantum=0
time_sync_enable=false
time_sync_period=100000000000
time_sync_spin_threshold=100000000

[system]
type=LinuxAlphaSystem
children=clk_domain cpu cpu_clk_domain disk0 disk2 intrctrl mem_ctrls piobus ruby simple_disk sys_port_proxy terminal tsunami voltage_domain
boot_cpu_frequency=500
boot_osflags=root=/dev/hda1 console=ttyS0
cache_line_size=64
clk_domain=system.clk_domain
console=/home/christina/parsec/binaries/console
eventq_index=0
init_param=0
kernel=/home/christina/parsec/binaries/vmlinux
load_addr_mask=1099511627775
mem_mode=timing
mem_ranges=0:536870911
memories=system.mem_ctrls
num_work_ids=16
pal=/home/christina/parsec/binaries/ts_osfpal
readfile=runscript_1.rcS
symbolfile=
system_rev=1024
system_type=34
work_begin_ckpt_count=0
work_begin_cpu_id_exit=-1
work_begin_exit_count=0
work_cpus_ckpt_count=0
work_end_ckpt_count=0
work_end_exit_count=0
work_item_id=-1
system_port=system.sys_port_proxy.slave[0]

[system.clk_domain]
type=SrcClockDomain
clock=1000
eventq_index=0
voltage_domain=system.voltage_domain

[system.cpu]
type=DerivO3CPU
children=branchPred dtb fuPool interrupts isa itb tracer
LFSTSize=1024
LQEntries=32
LSQCheckLoads=true
LSQDepCheckShift=4
SQEntries=32
SSITSize=1024
activity=0
backComSize=5
branchPred=system.cpu.branchPred
cachePorts=200
checker=Null
clk_domain=system.cpu_clk_domain
commitToDecodeDelay=1
commitToFetchDelay=1
commitToIEWDelay=1
commitToRenameDelay=1
commitWidth=8
cpu_id=0
decodeToFetchDelay=1
decodeToRenameDelay=1
decodeWidth=8
dispatchWidth=8
do_checkpoint_insts=true
do_quiesce=true
do_statistics_insts=true
dtb=system.cpu.dtb
eventq_index=0
fetchBufferSize=64
fetchToDecodeDelay=1
fetchTrapLatency=1
fetchWidth=8
forwardComSize=5
fuPool=system.cpu.fuPool
function_trace=false
function_trace_start=0
iewToCommitDelay=1
iewToDecodeDelay=1
iewToFetchDelay=1
iewToRenameDelay=1
interrupts=system.cpu.interrupts
isa=system.cpu.isa
issueToExecuteDelay=1
issueWidth=8
itb=system.cpu.itb
max_insts_all_threads=0
max_insts_any_thread=0
max_loads_all_threads=0
max_loads_any_thread=0
needsTSO=false
numIQEntries=64
numPhysCCRegs=0
numPhysFloatRegs=256
numPhysIntRegs=256
numROBEntries=192
numRobs=1
numThreads=1
profile=0
progress_interval=0
renameToDecodeDelay=1
renameToFetchDelay=1
renameToIEWDelay=2
renameToROBDelay=1
renameWidth=8
simpoint_start_insts=
smtCommitPolicy=RoundRobin
smtFetchPolicy=SingleThread
smtIQPolicy=Partitioned
smtIQThreshold=100
smtLSQPolicy=Partitioned
smtLSQThreshold=100
smtNumFetchingThreads=1
smtROBPolicy=Partitioned
smtROBThreshold=100
squashWidth=8
store_set_clear_period=250000
switched_out=false
system=system
tracer=system.cpu.tracer
trapLatency=13
wbDepth=1
wbWidth=8
workload=
dcache_port=system.ruby.l1_cntrl0.sequencer.slave[1]
icache_port=system.ruby.l1_cntrl0.sequencer.slave[0]

[system.cpu.branchPred]
type=BranchPredictor
BTBEntries=4096
BTBTagSize=16
RASSize=16
choiceCtrBits=2
choicePredictorSize=8192
eventq_index=0
globalCtrBits=2
globalPredictorSize=8192
instShiftAmt=2
localCtrBits=2
localHistoryTableSize=2048
localPredictorSize=2048
numThreads=1
predType=tournament

[system.cpu.dtb]
type=AlphaTLB
eventq_index=0
size=64

[system.cpu.fuPool]
type=FUPool
children=FUList0 FUList1 FUList2 FUList3 FUList4 FUList5 FUList6 FUList7 FUList8
FUList=system.cpu.fuPool.FUList0 system.cpu.fuPool.FUList1 system.cpu.fuPool.FUList2 system.cpu.fuPool.FUList3 system.cpu.fuPool.FUList4 system.cpu.fuPool.FUList5 system.cpu.fuPool.FUList6 system.cpu.fuPool.FUList7 system.cpu.fuPool.FUList8
eventq_index=0

[system.cpu.fuPool.FUList0]
type=FUDesc
children=opList
count=6
eventq_index=0
opList=system.cpu.fuPool.FUList0.opList

[system.cpu.fuPool.FUList0.opList]
type=OpDesc
eventq_index=0
issueLat=1
opClass=IntAlu
opLat=1

[system.cpu.fuPool.FUList1]
type=FUDesc
children=opList0 opList1
count=2
eventq_index=0
opList=system.cpu.fuPool.FUList1.opList0 system.cpu.fuPool.FUList1.opList1

[system.cpu.fuPool.FUList1.opList0]
type=OpDesc
eventq_index=0
issueLat=1
opClass=IntMult
opLat=3

[system.cpu.fuPool.FUList1.opList1]
type=OpDesc
eventq_index=0
issueLat=19
opClass=IntDiv
opLat=20

[system.cpu.fuPool.FUList2]
type=FUDesc
children=opList0 opList1 opList2
count=4
eventq_index=0
opList=system.cpu.fuPool.FUList2.opList0 system.cpu.fuPool.FUList2.opList1 system.cpu.fuPool.FUList2.opList2

[system.cpu.fuPool.FUList2.opList0]
type=OpDesc
eventq_index=0
issueLat=1
opClass=FloatAdd
opLat=2

[system.cpu.fuPool.FUList2.opList1]
type=OpDesc
eventq_index=0
issueLat=1
opClass=FloatCmp
opLat=2

[system.cpu.fuPool.FUList2.opList2]
type=OpDesc
eventq_index=0
issueLat=1
opClass=FloatCvt
opLat=2

[system.cpu.fuPool.FUList3]
type=FUDesc
children=opList0 opList1 opList2
count=2
eventq_index=0
opList=system.cpu.fuPool.FUList3.opList0 system.cpu.fuPool.FUList3.opList1 system.cpu.fuPool.FUList3.opList2

[system.cpu.fuPool.FUList3.opList0]
type=OpDesc
eventq_index=0
issueLat=1
opClass=FloatMult
opLat=4

[system.cpu.fuPool.FUList3.opList1]
type=OpDesc
eventq_index=0
issueLat=12
opClass=FloatDiv
opLat=12

[system.cpu.fuPool.FUList3.opList2]
type=OpDesc
eventq_index=0
issueLat=24
opClass=FloatSqrt
opLat=24

[system.cpu.fuPool.FUList4]
type=FUDesc
children=opList
count=0
eventq_index=0
opList=system.cpu.fuPool.FUList4.opList

[system.cpu.fuPool.FUList4.opList]
type=OpDesc
eventq_index=0
issueLat=1
opClass=MemRead
opLat=1

[system.cpu.fuPool.FUList5]
type=FUDesc
children=opList00 opList01 opList02 opList03 opList04 opList05 opList06 opList07 opList08 opList09 opList10 opList11 opList12 opList13 opList14 opList15 opList16 opList17 opList18 opList19
count=4
eventq_index=0
opList=system.cpu.fuPool.FUList5.opList00 system.cpu.fuPool.FUList5.opList01 system.cpu.fuPool.FUList5.opList02 system.cpu.fuPool.FUList5.opList03 system.cpu.fuPool.FUList5.opList04 system.cpu.fuPool.FUList5.opList05 system.cpu.fuPool.FUList5.opList06 system.cpu.fuPool.FUList5.opList07 system.cpu.fuPool.FUList5.opList08 system.cpu.fuPool.FUList5.opList09 system.cpu.fuPool.FUList5.opList10 system.cpu.fuPool.FUList5.opList11 system.cpu.fuPool.FUList5.opList12 system.cpu.fuPool.FUList5.opList13 system.cpu.fuPool.FUList5.opList14 system.cpu.fuPool.FUList5.opList15 system.cpu.fuPool.FUList5.opList16 system.cpu.fuPool.FUList5.opList17 system.cpu.fuPool.FUList5.opList18 system.cpu.fuPool.FUList5.opList19

[system.cpu.fuPool.FUList5.opList00]
type=OpDesc
eventq_index=0
issueLat=1
opClass=SimdAdd
opLat=1

[system.cpu.fuPool.FUList5.opList01]
type=OpDesc
eventq_index=0
issueLat=1
opClass=SimdAddAcc
opLat=1

[system.cpu.fuPool.FUList5.opList02]
type=OpDesc
eventq_index=0
issueLat=1
opClass=SimdAlu
opLat=1

[system.cpu.fuPool.FUList5.opList03]
type=OpDesc
eventq_index=0
issueLat=1
opClass=SimdCmp
opLat=1

[system.cpu.fuPool.FUList5.opList04]
type=OpDesc
eventq_index=0
issueLat=1
opClass=SimdCvt
opLat=1

[system.cpu.fuPool.FUList5.opList05]
type=OpDesc
eventq_index=0
issueLat=1
opClass=SimdMisc
opLat=1

[system.cpu.fuPool.FUList5.opList06]
type=OpDesc
eventq_index=0
issueLat=1
opClass=SimdMult
opLat=1

[system.cpu.fuPool.FUList5.opList07]
type=OpDesc
eventq_index=0
issueLat=1
opClass=SimdMultAcc
opLat=1

[system.cpu.fuPool.FUList5.opList08]
type=OpDesc
eventq_index=0
issueLat=1
opClass=SimdShift
opLat=1

[system.cpu.fuPool.FUList5.opList09]
type=OpDesc
eventq_index=0
issueLat=1
opClass=SimdShiftAcc
opLat=1

[system.cpu.fuPool.FUList5.opList10]
type=OpDesc
eventq_index=0
issueLat=1
opClass=SimdSqrt
opLat=1

[system.cpu.fuPool.FUList5.opList11]
type=OpDesc
eventq_index=0
issueLat=1
opClass=SimdFloatAdd
opLat=1

[system.cpu.fuPool.FUList5.opList12]
type=OpDesc
eventq_index=0
issueLat=1
opClass=SimdFloatAlu
opLat=1

[system.cpu.fuPool.FUList5.opList13]
type=OpDesc
eventq_index=0
issueLat=1
opClass=SimdFloatCmp
opLat=1

[system.cpu.fuPool.FUList5.opList14]
type=OpDesc
eventq_index=0
issueLat=1
opClass=SimdFloatCvt
opLat=1

[system.cpu.fuPool.FUList5.opList15]
type=OpDesc
eventq_index=0
issueLat=1
opClass=SimdFloatDiv
opLat=1

[system.cpu.fuPool.FUList5.opList16]
type=OpDesc
eventq_index=0
issueLat=1
opClass=SimdFloatMisc
opLat=1

[system.cpu.fuPool.FUList5.opList17]
type=OpDesc
eventq_index=0
issueLat=1
opClass=SimdFloatMult
opLat=1

[system.cpu.fuPool.FUList5.opList18]
type=OpDesc
eventq_index=0
issueLat=1
opClass=SimdFloatMultAcc
opLat=1

[system.cpu.fuPool.FUList5.opList19]
type=OpDesc
eventq_index=0
issueLat=1
opClass=SimdFloatSqrt
opLat=1

[system.cpu.fuPool.FUList6]
type=FUDesc
children=opList
count=0
eventq_index=0
opList=system.cpu.fuPool.FUList6.opList

[system.cpu.fuPool.FUList6.opList]
type=OpDesc
eventq_index=0
issueLat=1
opClass=MemWrite
opLat=1

[system.cpu.fuPool.FUList7]
type=FUDesc
children=opList0 opList1
count=4
eventq_index=0
opList=system.cpu.fuPool.FUList7.opList0 system.cpu.fuPool.FUList7.opList1

[system.cpu.fuPool.FUList7.opList0]
type=OpDesc
eventq_index=0
issueLat=1
opClass=MemRead
opLat=1

[system.cpu.fuPool.FUList7.opList1]
type=OpDesc
eventq_index=0
issueLat=1
opClass=MemWrite
opLat=1

[system.cpu.fuPool.FUList8]
type=FUDesc
children=opList
count=1
eventq_index=0
opList=system.cpu.fuPool.FUList8.opList

[system.cpu.fuPool.FUList8.opList]
type=OpDesc
eventq_index=0
issueLat=3
opClass=IprAccess
opLat=3

[system.cpu.interrupts]
type=AlphaInterrupts
eventq_index=0

[system.cpu.isa]
type=AlphaISA
eventq_index=0

[system.cpu.itb]
type=AlphaTLB
eventq_index=0
size=48

[system.cpu.tracer]
type=ExeTracer
eventq_index=0

[system.cpu_clk_domain]
type=SrcClockDomain
clock=500
eventq_index=0
voltage_domain=system.voltage_domain

[system.disk0]
type=IdeDisk
children=image
delay=1000000
driveID=master
eventq_index=0
image=system.disk0.image

[system.disk0.image]
type=CowDiskImage
children=child
child=system.disk0.image.child
eventq_index=0
image_file=
read_only=false
table_size=65536

[system.disk0.image.child]
type=RawDiskImage
eventq_index=0
image_file=/home/christina/parsec/disks/linux-parsec-2-1-m5.img
read_only=true

[system.disk2]
type=IdeDisk
children=image
delay=1000000
driveID=master
eventq_index=0
image=system.disk2.image

[system.disk2.image]
type=CowDiskImage
children=child
child=system.disk2.image.child
eventq_index=0
image_file=
read_only=false
table_size=65536

[system.disk2.image.child]
type=RawDiskImage
eventq_index=0
image_file=/home/christina/parsec/disks/linux-bigswap2.img
read_only=true

[system.intrctrl]
type=IntrControl
eventq_index=0
sys=system

[system.mem_ctrls]
type=SimpleMemory
bandwidth=73.000000
clk_domain=system.clk_domain
conf_table_reported=true
eventq_index=0
in_addr_map=true
latency=30000
latency_var=0
null=false
range=0:536870911
port=system.piobus.master[29]

[system.piobus]
type=NoncoherentBus
clk_domain=system.clk_domain
eventq_index=0
header_cycles=1
use_default_range=true
width=8
default=system.tsunami.pciconfig.pio
master=system.tsunami.cchip.pio system.tsunami.pchip.pio system.tsunami.fake_sm_chip.pio system.tsunami.fake_uart1.pio system.tsunami.fake_uart2.pio system.tsunami.fake_uart3.pio system.tsunami.fake_uart4.pio system.tsunami.fake_ppc.pio system.tsunami.fake_OROM.pio system.tsunami.fake_pnp_addr.pio system.tsunami.fake_pnp_write.pio system.tsunami.fake_pnp_read0.pio system.tsunami.fake_pnp_read1.pio system.tsunami.fake_pnp_read2.pio system.tsunami.fake_pnp_read3.pio system.tsunami.fake_pnp_read4.pio system.tsunami.fake_pnp_read5.pio system.tsunami.fake_pnp_read6.pio system.tsunami.fake_pnp_read7.pio system.tsunami.fake_ata0.pio system.tsunami.fake_ata1.pio system.tsunami.fb.pio system.tsunami.io.pio system.tsunami.uart.pio system.tsunami.backdoor.pio system.tsunami.ide.pio system.tsunami.ide.config system.tsunami.ethernet.pio system.tsunami.ethernet.config system.mem_ctrls.port
slave=system.ruby.l1_cntrl0.sequencer.pio_port

[system.ruby]
type=RubySystem
children=clk_domain dir_cntrl0 dma_cntrl0 dma_cntrl1 l1_cntrl0 memctrl_clk_domain network profiler
block_size_bytes=64
clk_domain=system.ruby.clk_domain
eventq_index=0
mem_size=536870912
no_mem_vec=false
random_seed=1234
randomization=false
stats_filename=ruby.stats

[system.ruby.clk_domain]
type=SrcClockDomain
clock=500
eventq_index=0
voltage_domain=system.voltage_domain

[system.ruby.dir_cntrl0]
type=Directory_Controller
children=directory memBuffer
buffer_size=0
clk_domain=system.ruby.clk_domain
cntrl_id=1
directory=system.ruby.dir_cntrl0.directory
directory_latency=12
eventq_index=0
memBuffer=system.ruby.dir_cntrl0.memBuffer
number_of_TBEs=256
peer=Null
recycle_latency=10
ruby_system=system.ruby
transitions_per_cycle=4
version=0

[system.ruby.dir_cntrl0.directory]
type=RubyDirectoryMemory
eventq_index=0
map_levels=4
numa_high_bit=5
size=536870912
use_map=false
version=0

[system.ruby.dir_cntrl0.memBuffer]
type=RubyMemoryControl
bank_bit_0=8
bank_busy_time=11
bank_queue_size=12
banks_per_rank=8
basic_bus_busy_time=2
clk_domain=system.ruby.memctrl_clk_domain
dimm_bit_0=12
dimms_per_channel=2
eventq_index=0
mem_ctl_latency=12
mem_fixed_delay=0
mem_random_arbitrate=0
rank_bit_0=11
rank_rank_delay=1
ranks_per_dimm=2
read_write_delay=2
refresh_period=1560
ruby_system=system.ruby
tFaw=0
version=0

[system.ruby.dma_cntrl0]
type=DMA_Controller
children=dma_sequencer
buffer_size=0
clk_domain=system.ruby.clk_domain
cntrl_id=2
dma_sequencer=system.ruby.dma_cntrl0.dma_sequencer
eventq_index=0
number_of_TBEs=256
peer=Null
recycle_latency=10
request_latency=6
ruby_system=system.ruby
transitions_per_cycle=4
version=0

[system.ruby.dma_cntrl0.dma_sequencer]
type=DMASequencer
access_phys_mem=true
clk_domain=system.ruby.clk_domain
eventq_index=0
ruby_system=system.ruby
support_data_reqs=true
support_inst_reqs=true
system=system
using_network_tester=false
using_ruby_tester=false
version=0
slave=system.tsunami.ide.dma

[system.ruby.dma_cntrl1]
type=DMA_Controller
children=dma_sequencer
buffer_size=0
clk_domain=system.ruby.clk_domain
cntrl_id=3
dma_sequencer=system.ruby.dma_cntrl1.dma_sequencer
eventq_index=0
number_of_TBEs=256
peer=Null
recycle_latency=10
request_latency=6
ruby_system=system.ruby
transitions_per_cycle=4
version=1

[system.ruby.dma_cntrl1.dma_sequencer]
type=DMASequencer
access_phys_mem=true
clk_domain=system.ruby.clk_domain
eventq_index=0
ruby_system=system.ruby
support_data_reqs=true
support_inst_reqs=true
system=system
using_network_tester=false
using_ruby_tester=false
version=1
slave=system.tsunami.ethernet.dma

[system.ruby.l1_cntrl0]
type=L1Cache_Controller
children=cacheMemory sequencer
buffer_size=0
cacheMemory=system.ruby.l1_cntrl0.cacheMemory
cache_response_latency=12
clk_domain=system.ruby.clk_domain
cntrl_id=0
eventq_index=0
issue_latency=2
number_of_TBEs=256
peer=Null
recycle_latency=10
ruby_system=system.ruby
send_evictions=true
sequencer=system.ruby.l1_cntrl0.sequencer
transitions_per_cycle=4
version=0

[system.ruby.l1_cntrl0.cacheMemory]
type=RubyCache
assoc=2
dataAccessLatency=1
dataArrayBanks=1
eventq_index=0
is_icache=false
latency=3
replacement_policy=PSEUDO_LRU
resourceStalls=false
size=65536
start_index_bit=6
tagAccessLatency=1
tagArrayBanks=1

[system.ruby.l1_cntrl0.sequencer]
type=RubySequencer
access_phys_mem=true
clk_domain=system.ruby.clk_domain
dcache=system.ruby.l1_cntrl0.cacheMemory
deadlock_threshold=500000
eventq_index=0
icache=system.ruby.l1_cntrl0.cacheMemory
max_outstanding_requests=16
ruby_system=system.ruby
support_data_reqs=true
support_inst_reqs=true
system=system
using_network_tester=false
using_ruby_tester=false
version=0
pio_port=system.piobus.slave[0]
slave=system.cpu.icache_port system.cpu.dcache_port

[system.ruby.memctrl_clk_domain]
type=DerivedClockDomain
clk_divider=3
clk_domain=system.ruby.clk_domain
eventq_index=0

[system.ruby.network]
type=SimpleNetwork
children=ext_links0 ext_links1 ext_links2 ext_links3 int_links0 int_links1 int_links2 int_links3 routers0 routers1 routers2 routers3 routers4
adaptive_routing=false
buffer_size=0
clk_domain=system.ruby.clk_domain
control_msg_size=8
endpoint_bandwidth=1000
eventq_index=0
ext_links=system.ruby.network.ext_links0 system.ruby.network.ext_links1 system.ruby.network.ext_links2 system.ruby.network.ext_links3
int_links=system.ruby.network.int_links0 system.ruby.network.int_links1 system.ruby.network.int_links2 system.ruby.network.int_links3
number_of_virtual_networks=10
routers=system.ruby.network.routers0 system.ruby.network.routers1 system.ruby.network.routers2 system.ruby.network.routers3 system.ruby.network.routers4
ruby_system=system.ruby
topology=Crossbar

[system.ruby.network.ext_links0]
type=SimpleExtLink
bandwidth_factor=16
eventq_index=0
ext_node=system.ruby.l1_cntrl0
int_node=system.ruby.network.routers0
latency=1
link_id=0
weight=1

[system.ruby.network.ext_links1]
type=SimpleExtLink
bandwidth_factor=16
eventq_index=0
ext_node=system.ruby.dir_cntrl0
int_node=system.ruby.network.routers1
latency=1
link_id=1
weight=1

[system.ruby.network.ext_links2]
type=SimpleExtLink
bandwidth_factor=16
eventq_index=0
ext_node=system.ruby.dma_cntrl0
int_node=system.ruby.network.routers2
latency=1
link_id=2
weight=1

[system.ruby.network.ext_links3]
type=SimpleExtLink
bandwidth_factor=16
eventq_index=0
ext_node=system.ruby.dma_cntrl1
int_node=system.ruby.network.routers3
latency=1
link_id=3
weight=1

[system.ruby.network.int_links0]
type=SimpleIntLink
bandwidth_factor=16
eventq_index=0
latency=1
link_id=4
node_a=system.ruby.network.routers0
node_b=system.ruby.network.routers4
weight=1

[system.ruby.network.int_links1]
type=SimpleIntLink
bandwidth_factor=16
eventq_index=0
latency=1
link_id=5
node_a=system.ruby.network.routers1
node_b=system.ruby.network.routers4
weight=1

[system.ruby.network.int_links2]
type=SimpleIntLink
bandwidth_factor=16
eventq_index=0
latency=1
link_id=6
node_a=system.ruby.network.routers2
node_b=system.ruby.network.routers4
weight=1

[system.ruby.network.int_links3]
type=SimpleIntLink
bandwidth_factor=16
eventq_index=0
latency=1
link_id=7
node_a=system.ruby.network.routers3
node_b=system.ruby.network.routers4
weight=1

[system.ruby.network.routers0]
type=Switch
clk_domain=system.ruby.clk_domain
eventq_index=0
router_id=0
virt_nets=10

[system.ruby.network.routers1]
type=Switch
clk_domain=system.ruby.clk_domain
eventq_index=0
router_id=1
virt_nets=10

[system.ruby.network.routers2]
type=Switch
clk_domain=system.ruby.clk_domain
eventq_index=0
router_id=2
virt_nets=10

[system.ruby.network.routers3]
type=Switch
clk_domain=system.ruby.clk_domain
eventq_index=0
router_id=3
virt_nets=10

[system.ruby.network.routers4]
type=Switch
clk_domain=system.ruby.clk_domain
eventq_index=0
router_id=4
virt_nets=10

[system.ruby.profiler]
type=RubyProfiler
all_instructions=false
eventq_index=0
hot_lines=false
num_of_sequencers=1
ruby_system=system.ruby

[system.simple_disk]
type=SimpleDisk
children=disk
disk=system.simple_disk.disk
eventq_index=0
system=system

[system.simple_disk.disk]
type=RawDiskImage
eventq_index=0
image_file=/home/christina/parsec/disks/linux-parsec-2-1-m5.img
read_only=true

[system.sys_port_proxy]
type=RubyPortProxy
access_phys_mem=true
clk_domain=system.clk_domain
eventq_index=0
ruby_system=system.ruby
support_data_reqs=true
support_inst_reqs=true
system=system
using_network_tester=false
using_ruby_tester=false
version=0
slave=system.system_port

[system.terminal]
type=Terminal
eventq_index=0
intr_control=system.intrctrl
number=0
output=true
port=3456

[system.tsunami]
type=Tsunami
children=backdoor cchip ethernet fake_OROM fake_ata0 fake_ata1 fake_pnp_addr fake_pnp_read0 fake_pnp_read1 fake_pnp_read2 fake_pnp_read3 fake_pnp_read4 fake_pnp_read5 fake_pnp_read6 fake_pnp_read7 fake_pnp_write fake_ppc fake_sm_chip fake_uart1 fake_uart2 fake_uart3 fake_uart4 fb ide io pchip pciconfig uart
eventq_index=0
intrctrl=system.intrctrl
system=system

[system.tsunami.backdoor]
type=AlphaBackdoor
clk_domain=system.clk_domain
cpu=system.cpu
disk=system.simple_disk
eventq_index=0
pio_addr=8804682956800
pio_latency=100000
platform=system.tsunami
system=system
terminal=system.terminal
pio=system.piobus.master[24]

[system.tsunami.cchip]
type=TsunamiCChip
clk_domain=system.clk_domain
eventq_index=0
pio_addr=8803072344064
pio_latency=100000
system=system
tsunami=system.tsunami
pio=system.piobus.master[0]

[system.tsunami.ethernet]
type=NSGigE
BAR0=1
BAR0LegacyIO=false
BAR0Size=256
BAR1=0
BAR1LegacyIO=false
BAR1Size=4096
BAR2=0
BAR2LegacyIO=false
BAR2Size=0
BAR3=0
BAR3LegacyIO=false
BAR3Size=0
BAR4=0
BAR4LegacyIO=false
BAR4Size=0
BAR5=0
BAR5LegacyIO=false
BAR5Size=0
BIST=0
CacheLineSize=0
CapabilityPtr=0
CardbusCIS=0
ClassCode=2
Command=0
DeviceID=34
ExpansionROM=0
HeaderType=0
InterruptLine=30
InterruptPin=1
LatencyTimer=0
MSICAPBaseOffset=0
MSICAPCapId=0
MSICAPMaskBits=0
MSICAPMsgAddr=0
MSICAPMsgCtrl=0
MSICAPMsgData=0
MSICAPMsgUpperAddr=0
MSICAPNextCapability=0
MSICAPPendingBits=0
MSIXCAPBaseOffset=0
MSIXCAPCapId=0
MSIXCAPNextCapability=0
MSIXMsgCtrl=0
MSIXPbaOffset=0
MSIXTableOffset=0
MaximumLatency=52
MinimumGrant=176
PMCAPBaseOffset=0
PMCAPCapId=0
PMCAPCapabilities=0
PMCAPCtrlStatus=0
PMCAPNextCapability=0
PXCAPBaseOffset=0
PXCAPCapId=0
PXCAPCapabilities=0
PXCAPDevCap2=0
PXCAPDevCapabilities=0
PXCAPDevCtrl=0
PXCAPDevCtrl2=0
PXCAPDevStatus=0
PXCAPLinkCap=0
PXCAPLinkCtrl=0
PXCAPLinkStatus=0
PXCAPNextCapability=0
ProgIF=0
Revision=0
Status=656
SubClassCode=0
SubsystemID=0
SubsystemVendorID=0
VendorID=4107
clk_domain=system.clk_domain
config_latency=20000
dma_data_free=false
dma_desc_free=false
dma_no_allocate=true
dma_read_delay=0
dma_read_factor=0
dma_write_delay=0
dma_write_factor=0
eventq_index=0
hardware_address=00:90:00:00:00:01
intr_delay=10000000
pci_bus=0
pci_dev=1
pci_func=0
pio_latency=30000
platform=system.tsunami
rss=false
rx_delay=1000000
rx_fifo_size=524288
rx_filter=true
rx_thread=false
system=system
tx_delay=1000000
tx_fifo_size=524288
tx_thread=false
config=system.piobus.master[28]
dma=system.ruby.dma_cntrl1.dma_sequencer.slave[0]
pio=system.piobus.master[27]

[system.tsunami.fake_OROM]
type=IsaFake
clk_domain=system.clk_domain
eventq_index=0
fake_mem=false
pio_addr=8796093677568
pio_latency=100000
pio_size=393216
ret_bad_addr=false
ret_data16=65535
ret_data32=4294967295
ret_data64=18446744073709551615
ret_data8=255
system=system
update_data=false
warn_access=
pio=system.piobus.master[8]

[system.tsunami.fake_ata0]
type=IsaFake
clk_domain=system.clk_domain
eventq_index=0
fake_mem=false
pio_addr=8804615848432
pio_latency=100000
pio_size=8
ret_bad_addr=false
ret_data16=65535
ret_data32=4294967295
ret_data64=18446744073709551615
ret_data8=255
system=system
update_data=false
warn_access=
pio=system.piobus.master[19]

[system.tsunami.fake_ata1]
type=IsaFake
clk_domain=system.clk_domain
eventq_index=0
fake_mem=false
pio_addr=8804615848304
pio_latency=100000
pio_size=8
ret_bad_addr=false
ret_data16=65535
ret_data32=4294967295
ret_data64=18446744073709551615
ret_data8=255
system=system
update_data=false
warn_access=
pio=system.piobus.master[20]

[system.tsunami.fake_pnp_addr]
type=IsaFake
clk_domain=system.clk_domain
eventq_index=0
fake_mem=false
pio_addr=8804615848569
pio_latency=100000
pio_size=8
ret_bad_addr=false
ret_data16=65535
ret_data32=4294967295
ret_data64=18446744073709551615
ret_data8=255
system=system
update_data=false
warn_access=
pio=system.piobus.master[9]

[system.tsunami.fake_pnp_read0]
type=IsaFake
clk_domain=system.clk_domain
eventq_index=0
fake_mem=false
pio_addr=8804615848451
pio_latency=100000
pio_size=8
ret_bad_addr=false
ret_data16=65535
ret_data32=4294967295
ret_data64=18446744073709551615
ret_data8=255
system=system
update_data=false
warn_access=
pio=system.piobus.master[11]

[system.tsunami.fake_pnp_read1]
type=IsaFake
clk_domain=system.clk_domain
eventq_index=0
fake_mem=false
pio_addr=8804615848515
pio_latency=100000
pio_size=8
ret_bad_addr=false
ret_data16=65535
ret_data32=4294967295
ret_data64=18446744073709551615
ret_data8=255
system=system
update_data=false
warn_access=
pio=system.piobus.master[12]

[system.tsunami.fake_pnp_read2]
type=IsaFake
clk_domain=system.clk_domain
eventq_index=0
fake_mem=false
pio_addr=8804615848579
pio_latency=100000
pio_size=8
ret_bad_addr=false
ret_data16=65535
ret_data32=4294967295
ret_data64=18446744073709551615
ret_data8=255
system=system
update_data=false
warn_access=
pio=system.piobus.master[13]

[system.tsunami.fake_pnp_read3]
type=IsaFake
clk_domain=system.clk_domain
eventq_index=0
fake_mem=false
pio_addr=8804615848643
pio_latency=100000
pio_size=8
ret_bad_addr=false
ret_data16=65535
ret_data32=4294967295
ret_data64=18446744073709551615
ret_data8=255
system=system
update_data=false
warn_access=
pio=system.piobus.master[14]

[system.tsunami.fake_pnp_read4]
type=IsaFake
clk_domain=system.clk_domain
eventq_index=0
fake_mem=false
pio_addr=8804615848707
pio_latency=100000
pio_size=8
ret_bad_addr=false
ret_data16=65535
ret_data32=4294967295
ret_data64=18446744073709551615
ret_data8=255
system=system
update_data=false
warn_access=
pio=system.piobus.master[15]

[system.tsunami.fake_pnp_read5]
type=IsaFake
clk_domain=system.clk_domain
eventq_index=0
fake_mem=false
pio_addr=8804615848771
pio_latency=100000
pio_size=8
ret_bad_addr=false
ret_data16=65535
ret_data32=4294967295
ret_data64=18446744073709551615
ret_data8=255
system=system
update_data=false
warn_access=
pio=system.piobus.master[16]

[system.tsunami.fake_pnp_read6]
type=IsaFake
clk_domain=system.clk_domain
eventq_index=0
fake_mem=false
pio_addr=8804615848835
pio_latency=100000
pio_size=8
ret_bad_addr=false
ret_data16=65535
ret_data32=4294967295
ret_data64=18446744073709551615
ret_data8=255
system=system
update_data=false
warn_access=
pio=system.piobus.master[17]

[system.tsunami.fake_pnp_read7]
type=IsaFake
clk_domain=system.clk_domain
eventq_index=0
fake_mem=false
pio_addr=8804615848899
pio_latency=100000
pio_size=8
ret_bad_addr=false
ret_data16=65535
ret_data32=4294967295
ret_data64=18446744073709551615
ret_data8=255
system=system
update_data=false
warn_access=
pio=system.piobus.master[18]

[system.tsunami.fake_pnp_write]
type=IsaFake
clk_domain=system.clk_domain
eventq_index=0
fake_mem=false
pio_addr=8804615850617
pio_latency=100000
pio_size=8
ret_bad_addr=false
ret_data16=65535
ret_data32=4294967295
ret_data64=18446744073709551615
ret_data8=255
system=system
update_data=false
warn_access=
pio=system.piobus.master[10]

[system.tsunami.fake_ppc]
type=IsaFake
clk_domain=system.clk_domain
eventq_index=0
fake_mem=false
pio_addr=8804615848891
pio_latency=100000
pio_size=8
ret_bad_addr=false
ret_data16=65535
ret_data32=4294967295
ret_data64=18446744073709551615
ret_data8=255
system=system
update_data=false
warn_access=
pio=system.piobus.master[7]

[system.tsunami.fake_sm_chip]
type=IsaFake
clk_domain=system.clk_domain
eventq_index=0
fake_mem=false
pio_addr=8804615848816
pio_latency=100000
pio_size=8
ret_bad_addr=false
ret_data16=65535
ret_data32=4294967295
ret_data64=18446744073709551615
ret_data8=255
system=system
update_data=false
warn_access=
pio=system.piobus.master[2]

[system.tsunami.fake_uart1]
type=IsaFake
clk_domain=system.clk_domain
eventq_index=0
fake_mem=false
pio_addr=8804615848696
pio_latency=100000
pio_size=8
ret_bad_addr=false
ret_data16=65535
ret_data32=4294967295
ret_data64=18446744073709551615
ret_data8=255
system=system
update_data=false
warn_access=
pio=system.piobus.master[3]

[system.tsunami.fake_uart2]
type=IsaFake
clk_domain=system.clk_domain
eventq_index=0
fake_mem=false
pio_addr=8804615848936
pio_latency=100000
pio_size=8
ret_bad_addr=false
ret_data16=65535
ret_data32=4294967295
ret_data64=18446744073709551615
ret_data8=255
system=system
update_data=false
warn_access=
pio=system.piobus.master[4]

[system.tsunami.fake_uart3]
type=IsaFake
clk_domain=system.clk_domain
eventq_index=0
fake_mem=false
pio_addr=8804615848680
pio_latency=100000
pio_size=8
ret_bad_addr=false
ret_data16=65535
ret_data32=4294967295
ret_data64=18446744073709551615
ret_data8=255
system=system
update_data=false
warn_access=
pio=system.piobus.master[5]

[system.tsunami.fake_uart4]
type=IsaFake
clk_domain=system.clk_domain
eventq_index=0
fake_mem=false
pio_addr=8804615848944
pio_latency=100000
pio_size=8
ret_bad_addr=false
ret_data16=65535
ret_data32=4294967295
ret_data64=18446744073709551615
ret_data8=255
system=system
update_data=false
warn_access=
pio=system.piobus.master[6]

[system.tsunami.fb]
type=BadDevice
clk_domain=system.clk_domain
devicename=FrameBuffer
eventq_index=0
pio_addr=8804615848912
pio_latency=100000
system=system
pio=system.piobus.master[21]

[system.tsunami.ide]
type=IdeController
BAR0=1
BAR0LegacyIO=false
BAR0Size=8
BAR1=1
BAR1LegacyIO=false
BAR1Size=4
BAR2=1
BAR2LegacyIO=false
BAR2Size=8
BAR3=1
BAR3LegacyIO=false
BAR3Size=4
BAR4=1
BAR4LegacyIO=false
BAR4Size=16
BAR5=1
BAR5LegacyIO=false
BAR5Size=0
BIST=0
CacheLineSize=0
CapabilityPtr=0
CardbusCIS=0
ClassCode=1
Command=0
DeviceID=28945
ExpansionROM=0
HeaderType=0
InterruptLine=31
InterruptPin=1
LatencyTimer=0
MSICAPBaseOffset=0
MSICAPCapId=0
MSICAPMaskBits=0
MSICAPMsgAddr=0
MSICAPMsgCtrl=0
MSICAPMsgData=0
MSICAPMsgUpperAddr=0
MSICAPNextCapability=0
MSICAPPendingBits=0
MSIXCAPBaseOffset=0
MSIXCAPCapId=0
MSIXCAPNextCapability=0
MSIXMsgCtrl=0
MSIXPbaOffset=0
MSIXTableOffset=0
MaximumLatency=0
MinimumGrant=0
PMCAPBaseOffset=0
PMCAPCapId=0
PMCAPCapabilities=0
PMCAPCtrlStatus=0
PMCAPNextCapability=0
PXCAPBaseOffset=0
PXCAPCapId=0
PXCAPCapabilities=0
PXCAPDevCap2=0
PXCAPDevCapabilities=0
PXCAPDevCtrl=0
PXCAPDevCtrl2=0
PXCAPDevStatus=0
PXCAPLinkCap=0
PXCAPLinkCtrl=0
PXCAPLinkStatus=0
PXCAPNextCapability=0
ProgIF=133
Revision=0
Status=640
SubClassCode=1
SubsystemID=0
SubsystemVendorID=0
VendorID=32902
clk_domain=system.clk_domain
config_latency=20000
ctrl_offset=0
disks=system.disk0 system.disk2
eventq_index=0
io_shift=0
pci_bus=0
pci_dev=0
pci_func=0
pio_latency=30000
platform=system.tsunami
system=system
config=system.piobus.master[26]
dma=system.ruby.dma_cntrl0.dma_sequencer.slave[0]
pio=system.piobus.master[25]

[system.tsunami.io]
type=TsunamiIO
clk_domain=system.clk_domain
eventq_index=0
frequency=976562500
pio_addr=8804615847936
pio_latency=100000
system=system
time=Thu Jan  1 00:00:00 2009